@<TRIPOS>MOLECULE
10797
 12 12 0 0 0
SMALL
GASTEIGER

@<TRIPOS>ATOM
      1 O           2.8090   -0.7694    0.0000 O.2     1  UNL1       -0.4681
      2 C           3.6180   -0.1816    0.0000 C.ar    1  UNL1        0.1018
      3 C           3.3090    0.7694    0.0000 C.ar    1  UNL1       -0.0210
      4 C           4.5691   -0.4907    0.0000 C.3     1  UNL1       -0.0064
      5 C           2.3090    0.7694    0.0000 C.ar    1  UNL1       -0.0237
      6 C           2.0000   -0.1816    0.0000 C.ar    1  UNL1        0.0921
      7 H           3.6734    1.2710    0.0000 H       1  UNL1        0.0652
      8 H           4.3775   -1.0803    0.0000 H       1  UNL1        0.0308
      9 H           5.1588   -0.6822    0.0000 H       1  UNL1        0.0308
     10 H           4.7607    0.0990    0.0000 H       1  UNL1        0.0308
     11 H           1.9446    1.2710    0.0000 H       1  UNL1        0.0649
     12 H           1.4103   -0.3732    0.0000 H       1  UNL1        0.1029
@<TRIPOS>BOND
     1     1     2   ar
     2     1     6   ar
     3     2     3   ar
     4     2     4    1
     5     3     5   ar
     6     3     7    1
     7     4     8    1
     8     4     9    1
     9     4    10    1
    10     5     6   ar
    11     5    11    1
    12     6    12    1
