lig
 OpenBabel01212010263D

  8  7  0  0  0  0  0  0  0  0999 V2000
    1.5300    0.0000    0.0000 C   0  0  0  0  0  0  0  0  0  0  0  0
    0.0000    0.0000    0.0000 C   0  0  0  0  0  0  0  0  0  0  0  0
   -0.3633    1.0277    0.0000 H   0  0  0  0  0  0  0  0  0  0  0  0
   -0.3633   -0.5138    0.8900 H   0  0  0  0  0  0  0  0  0  0  0  0
   -0.3633   -0.5138   -0.8900 H   0  0  0  0  0  0  0  0  0  0  0  0
    1.8933   -1.0277    0.0000 H   0  0  0  0  0  0  0  0  0  0  0  0
    1.8933    0.5138   -0.8900 H   0  0  0  0  0  0  0  0  0  0  0  0
    1.8933    0.5138    0.8900 H   0  0  0  0  0  0  0  0  0  0  0  0
  1  2  1  0  0  0  0
  1  6  1  0  0  0  0
  1  7  1  0  0  0  0
  1  8  1  0  0  0  0
  2  3  1  0  0  0  0
  2  4  1  0  0  0  0
  2  5  1  0  0  0  0
M  END
$$$$
