@<TRIPOS>MOLECULE
2-methylindole.pdb
 19 20 0 0 0
SMALL
GASTEIGER

@<TRIPOS>ATOM
      1 N           4.6780   -0.6080    0.0000 N.ar    1  UNL1       -0.3581
      2 H           4.8710   -1.1970    0.0000 H       1  UNL1        0.1656
      3 C           3.7320   -0.3030    0.0000 C.ar    1  UNL1        0.0467
      4 C           3.7320    0.6970    0.0000 C.ar    1  UNL1       -0.0001
      5 C           5.2620    0.1970    0.0000 C.ar    1  UNL1        0.0139
      6 C           4.6780    1.0020    0.0000 C.ar    1  UNL1       -0.0337
      7 H           4.8710    1.5910    0.0000 H       1  UNL1        0.0641
      8 C           2.8660   -0.8030    0.0000 C.ar    1  UNL1       -0.0378
      9 H           2.8660   -1.4230    0.0000 H       1  UNL1        0.0638
     10 C           2.8660    1.1970    0.0000 C.ar    1  UNL1       -0.0526
     11 H           2.8660    1.8170    0.0000 H       1  UNL1        0.0624
     12 C           6.2620    0.1970    0.0000 C.3     1  UNL1       -0.0244
     13 H           6.2620   -0.4230    0.0000 H       1  UNL1        0.0292
     14 H           6.8820    0.1970    0.0000 H       1  UNL1        0.0292
     15 H           6.2620    0.8170    0.0000 H       1  UNL1        0.0292
     16 C           2.0000   -0.3030    0.0000 C.ar    1  UNL1       -0.0598
     17 H           1.4630   -0.6130    0.0000 H       1  UNL1        0.0618
     18 C           2.0000    0.6970    0.0000 C.ar    1  UNL1       -0.0611
     19 H           1.4630    1.0070    0.0000 H       1  UNL1        0.0618
@<TRIPOS>BOND
     1     1     3   ar
     2     1     5   ar
     3     1     2    1
     4     3     4   ar
     5     3     8   ar
     6     4     6   ar
     7     4    10   ar
     8     5     6   ar
     9     5    12    1
    10     6     7    1
    11     8    16   ar
    12     8     9    1
    13    10    18   ar
    14    10    11    1
    15    12    13    1
    16    12    14    1
    17    12    15    1
    18    16    18   ar
    19    16    17    1
    20    18    19    1
