@<TRIPOS>MOLECULE
Structure1
 6 5 0 0 0
SMALL
GASTEIGER
****
Structure written by MMmdl.
@<TRIPOS>ATOM
      1 C           0.0000    0.0000    0.0000 C.3     1  UNL1        0.0330
      2 O           1.3800    0.0000    0.0000 O.3     1  UNL1       -0.3982
      3 H          -0.3633    1.0277    0.0000 H       1  UNL1        0.0521
      4 H          -0.3633   -0.5138   -0.8900 H       1  UNL1        0.0521
      5 H          -0.3633   -0.5138    0.8900 H       1  UNL1        0.0521
      6 H           1.8026   -0.9063   -0.0000 H       1  UNL1        0.2090
@<TRIPOS>BOND
     1     1     2    1
     2     1     3    1
     3     1     4    1
     4     1     5    1
     5     2     6    1
