@<TRIPOS>MOLECULE
2-methylfuran.pdb
 12 12 0 0 0
SMALL
GASTEIGER

@<TRIPOS>ATOM
      1 O           2.8090   -0.7690    0.0000 O.2     1  UNL1       -0.4681
      2 C           3.6180   -0.1820    0.0000 C.ar    1  UNL1        0.1018
      3 C           3.3090    0.7690    0.0000 C.ar    1  UNL1       -0.0210
      4 H           3.6730    1.2710    0.0000 H       1  UNL1        0.0652
      5 C           4.5690   -0.4910    0.0000 C.3     1  UNL1       -0.0064
      6 H           4.3780   -1.0800    0.0000 H       1  UNL1        0.0308
      7 H           5.1590   -0.6820    0.0000 H       1  UNL1        0.0308
      8 H           4.7610    0.0990    0.0000 H       1  UNL1        0.0308
      9 C           2.3090    0.7690    0.0000 C.ar    1  UNL1       -0.0237
     10 H           1.9450    1.2710    0.0000 H       1  UNL1        0.0649
     11 C           2.0000   -0.1820    0.0000 C.ar    1  UNL1        0.0921
     12 H           1.4100   -0.3730    0.0000 H       1  UNL1        0.1029
@<TRIPOS>BOND
     1     1     2   ar
     2     1    11   ar
     3     2     3   ar
     4     2     5    1
     5     3     9   ar
     6     3     4    1
     7     5     6    1
     8     5     7    1
     9     5     8    1
    10     9    11   ar
    11     9    10    1
    12    11    12    1
