@<TRIPOS>MOLECULE
7224
 19 20 0 0 0
SMALL
GASTEIGER

@<TRIPOS>ATOM
      1 N           4.6783   -0.6077    0.0000 N.ar    1  UNL1       -0.3581
      2 C           3.7320   -0.3030    0.0000 C.ar    1  UNL1        0.0467
      3 C           3.7320    0.6970    0.0000 C.ar    1  UNL1       -0.0001
      4 C           5.2619    0.1970    0.0000 C.ar    1  UNL1        0.0139
      5 C           4.6783    1.0018    0.0000 C.ar    1  UNL1       -0.0337
      6 C           2.8660   -0.8030    0.0000 C.ar    1  UNL1       -0.0378
      7 C           2.8660    1.1970    0.0000 C.ar    1  UNL1       -0.0526
      8 C           6.2619    0.1970    0.0000 C.3     1  UNL1       -0.0244
      9 C           2.0000   -0.3030    0.0000 C.ar    1  UNL1       -0.0598
     10 C           2.0000    0.6970    0.0000 C.ar    1  UNL1       -0.0611
     11 H           4.8709   -1.1970    0.0000 H       1  UNL1        0.1656
     12 H           4.8709    1.5911    0.0000 H       1  UNL1        0.0641
     13 H           2.8660   -1.4230    0.0000 H       1  UNL1        0.0638
     14 H           2.8660    1.8170    0.0000 H       1  UNL1        0.0624
     15 H           6.2619   -0.4230    0.0000 H       1  UNL1        0.0292
     16 H           6.8819    0.1970    0.0000 H       1  UNL1        0.0292
     17 H           6.2619    0.8170    0.0000 H       1  UNL1        0.0292
     18 H           1.4631   -0.6130    0.0000 H       1  UNL1        0.0618
     19 H           1.4631    1.0070    0.0000 H       1  UNL1        0.0618
@<TRIPOS>BOND
     1     1     2   ar
     2     1     4   ar
     3     1    11    1
     4     2     3   ar
     5     2     6   ar
     6     3     5   ar
     7     3     7   ar
     8     4     5   ar
     9     4     8    1
    10     5    12    1
    11     6     9   ar
    12     6    13    1
    13     7    10   ar
    14     7    14    1
    15     8    15    1
    16     8    16    1
    17     8    17    1
    18     9    10   ar
    19     9    18    1
    20    10    19    1
