@<TRIPOS>MOLECULE
lig
 8 7 0 0 0
SMALL
GASTEIGER

@<TRIPOS>ATOM
      1 C           1.5300    0.0000    0.0000 C.3     1  UNL11      -0.0681
      2 C           0.0000    0.0000    0.0000 C.3     1  UNL11      -0.0681
      3 H           1.8933    1.0277    0.0000 H       1  UNL11       0.0227
      4 H           1.8933   -0.5138    0.8900 H       1  UNL11       0.0227
      5 H           1.8933   -0.5138   -0.8900 H       1  UNL11       0.0227
      6 H          -0.3633   -1.0277    0.0000 H       1  UNL11       0.0227
      7 H          -0.3633    0.5138   -0.8900 H       1  UNL11       0.0227
      8 H          -0.3633    0.5138    0.8900 H       1  UNL11       0.0227
@<TRIPOS>BOND
     1     1     2    1
     2     1     3    1
     3     1     4    1
     4     1     5    1
     5     2     6    1
     6     2     7    1
     7     2     8    1
